&time_control
 run_days                = 1,
 run_hours               = 0,
 run_minutes             = 0,
 run_seconds             = 0,
 start_year              = 2018,
 start_month             = 05,
 start_day               = 03,
 start_hour              = 00,
 start_minute            = 00,
 start_second            = 00,
 end_year                = 2018,
 end_month               = 05,
 end_day                 = 04,
 end_hour                = 00,
 end_minute              = 00,
 end_second              = 00,
 interval_seconds        = 3600,
 input_from_file         = .true.,
 history_interval        = 60,
 frames_per_outfile      = 72,
 restart                 = .false.,
 restart_interval        = 99999,
 io_form_history         = 2,
 io_form_restart         = 2,
 io_form_input           = 2,
 io_form_boundary        = 2,
 debug_level             = 0,
 iofields_filename       = 'io_remove_d01.txt',
 ignore_iofields_warning = .true.,
 auxinput5_inname        = 'wrfchemi_hhZ_d<domain>',
 auxinput8_inname        = 'wrfchemi_gocart_bg_d<domain>',
 auxinput5_interval_m    = 60, 
 auxinput8_interval_m    = 1440,
 io_form_auxinput5       = 2,
 io_form_auxinput8       = 2,
 frames_per_auxinput5    = 1, 
 frames_per_auxinput8    = 1, 
 force_use_old_data      = .true.,
 history_outname         = "/glade/derecho/scratch/yates/KAUST/NEOM/WRFchem/wrfout_d<domain>_<date>"
 auxhist2_outname        = 'auxhist2_d<domain>_<date>'            
 auxhist2_interval       = 180
/

&domains
 time_step               = 72,
 time_step_fract_num     = 0,
 time_step_fract_den     = 1,
 max_dom                 = 1,
 e_we                    = 620,
 e_sn                    = 381,
 e_vert                  = 57,
 dx                      = 12000,
 dy                      = 12000,
 p_top_requested         = 1000,
 num_metgrid_levels      = 38,
 num_metgrid_soil_levels = 4,
 grid_id                 = 1,
 parent_id               = 1,
 i_parent_start          = 1,
 j_parent_start          = 1,
 parent_grid_ratio       = 1,
 parent_time_step_ratio  = 1,
 feedback                = 0,
 smooth_option           = 0,
 eta_levels = 1.00000, 0.99730, 0.99157, 0.98506, 0.97772,
              0.96943, 0.96010, 0.94962, 0.93789, 0.92478,
              0.91020, 0.89403, 0.87618, 0.85657, 0.83514,
              0.81183, 0.78664, 0.75960, 0.73078, 0.70027,
              0.66825, 0.63491, 0.60048, 0.56527, 0.52957,
              0.49370, 0.45802, 0.42281, 0.38842, 0.35510,
              0.32311, 0.29265, 0.26386, 0.23686, 0.21172,
              0.18845, 0.16706, 0.14749, 0.12968, 0.11355,
              0.09901, 0.08593, 0.07423, 0.06378, 0.05447,
              0.04621, 0.03888, 0.03240, 0.02668, 0.02163,
              0.01718, 0.01328, 0.00984, 0.00682, 0.00418,
              0.00186, 0.00000,
/

&physics
 mp_physics              = 2,
 progn                   = 1,
 ra_lw_physics           = 4,
 ra_sw_physics           = 4,
 radt                    = 30,
 sf_sfclay_physics       = 2,
 sf_surface_physics      = 2,
 bl_pbl_physics          = 2,
 bldt                    = 0,
 cu_physics              = 5,
 cudt                    = 5,
 sf_urban_physics        = 0,
 isfflx                  = 1,
 ifsnow                  = 0,
 icloud                  = 0,
 surface_input_source    = 1,
 num_soil_layers         = 6,
 num_land_cat            = 21,
 maxiens                 = 1,
 maxens                  = 3,
 maxens2                 = 3,
 maxens3                 = 16,
 ensdim                  = 144,
 cu_rad_feedback         = .true.,
 cugd_avedx              = 1,
 mp_zero_out             = 2,
 mp_zero_out_thresh      = 1.e-8,
 cu_diag                 = 1,
/

&dynamics
 w_damping               = 1,
 diff_opt                = 1,
 km_opt                  = 4,
 base_temp               = 290.
 damp_opt                = 3,
 zdamp                   = 5000.,
 dampcoef                = 0.2,
 khdif                   = 0,
 kvdif                   = 0,
 non_hydrostatic         = .true.,
 moist_adv_opt           = 2,
 scalar_adv_opt          = 2,
 chem_adv_opt            = 2,
 tke_adv_opt             = 2,
/

&bdy_control
 spec_bdy_width          = 5,
 spec_zone               = 1,
 relax_zone              = 4,
 specified               = .true.,
 nested                  = .false.,
/

&namelist_quilt
/

&chem
 kemit                   = 1,
 chem_opt                = 300,
 bioemdt                 = 3., 
 photdt                  = 3., 
 chemdt                  = 5., 
 io_style_emissions      = 1,
 emiss_inpt_opt          = 1, 
 emiss_opt               = 6,
 chem_in_opt             = 0, 
 phot_opt                = 0, 
 gas_drydep_opt          = 1, 
 aer_drydep_opt          = 1, 
 bio_emiss_opt           = 1, 
 dustwd_onoff            = 1,
 dust_opt                = 1,
 dust_schme              = 3,
 seas_opt                = 1,
 dmsemis_opt             = 1,
 aer_op_opt              = 1,
 opt_pars_out            = 1,
 gas_bc_opt              = 1, 
 gas_ic_opt              = 1, 
 aer_bc_opt              = 1, 
 aer_ic_opt              = 1, 
 gaschem_onoff           = 0, 
 aerchem_onoff           = 1, 
 wetscav_onoff           = 0, 
 cldchem_onoff           = 0,
 vertmix_onoff           = 1, 
 chem_conv_tr            = 1, 
 biomass_burn_opt        = 0, 
 plumerisefire_frq       = 30, 
 aer_ra_feedback         = 1, 
 have_bcs_chem           = .false., 
 chemdiag                = 1,
/
